Circuit: * Z:\home\radoslavb\git\MusicBox\piezo\piezo_w_tl071.asc

Direct Newton iteration for .op point succeeded.

Date: Thu Feb 07 16:10:02 2013
Total elapsed time: 0.291 seconds.

tnom = 27
temp = 27
method = modified trap
totiter = 2102
traniter = 2082
tranpoints = 1042
accept = 1042
rejected = 0
matrix size = 28
fillins = 40
solver = Normal
Matrix Compiler1: 3.36 KB object code size  2.4/1.4/[0.9]
Matrix Compiler2: 2.80 KB object code size  1.1/1.6/[0.7]


