Circuit: * Z:\home\borisov-r\git\MusicBox\diy_oscilloscope\probes.asc

Direct Newton iteration for .op point succeeded.

Date: Tue Nov 06 14:53:30 2012
Total elapsed time: 0.072 seconds.

tnom = 27
temp = 27
method = modified trap
totiter = 1115
traniter = 1071
tranpoints = 415
accept = 306
rejected = 109
matrix size = 36
fillins = 32
solver = Normal
Matrix Compiler1: 3.20 KB object code size  2.5/2.7/[0.9]
Matrix Compiler2: 3.50 KB object code size  1.2/2.0/[1.0]


